Circuit: * C:\users\poppy\My Documents\side_project\accessibletuner\simulation2.asc

Direct Newton iteration failed to find .op point.  (Use ".option noopiter" to skip.)
Starting Gmin stepping
Gmin = 10
Gmin = 1.07374
Gmin = 0.115292
Gmin = 0.0123794
Gmin = 0.00132923
Gmin = 0.000142725
Gmin = 1.5325e-005
Gmin = 1.6455e-006
vernier = 0.5
Gmin = 3.40827e-007
vernier = 0.666667
vernier = 0.888888
Gmin = 7.76686e-008
vernier = 1
Gmin = 9.33136e-009
Gmin = 1.00195e-009
Gmin = 1.07583e-010
Gmin = 1.15517e-011
Gmin = 1.24035e-012
Gmin = 1.33182e-013
Gmin = 0
Gmin stepping succeeded in finding the operating point.


Date: Sun Nov 19 01:32:55 2017
Total elapsed time: 0.235 seconds.

tnom = 27
temp = 27
method = trap
totiter = 554
traniter = 0
tranpoints = 0
accept = 0
rejected = 0
matrix size = 39
fillins = 71
solver = Normal
Matrix Compiler1:     285 opcodes
Matrix Compiler2: off  [0.5]/0.7/0.7

